// Case: nRa90_Lactose_P10bar_J20LMH_C1kgm3
/*--------------------------------*- C++ -*----------------------------------*\
| =========                 |                                                 |
| \\      /  F ield         | OpenFOAM: The Open Source CFD Toolbox           |
|  \\    /   O peration     | Version:  v2506                                 |
|   \\  /    A nd           | Website:  www.openfoam.com                      |
|    \\/     M anipulation  |                                                 |
\*---------------------------------------------------------------------------*/
FoamFile
{
    version     2.0;
    format      ascii;
    class       dictionary;
    object      simulationConditions;
}
// * * * * * * * * * * * * * * * * * * * * * * * * * * * * * * * * * * * * * //

//Ah          1.1e-11;
Jv          5.56e-06;
rRef        0.0762;
Robs        1.0;
CA0         0.1;

RTobs       1.0;
CT0         0.001;


Pref        1.0e6;
RPM         7434;


// ************************************************************************* //
