/*--------------------------------*- C++ -*----------------------------------*\
| =========                 |                                                 |
| \\      /  F ield         | OpenFOAM: The Open Source CFD Toolbox           |
|  \\    /   O peration     | Version:  v2506                                 |
|   \\  /    A nd           | Website:  www.openfoam.com                      |
|    \\/     M anipulation  |                                                 |
\*---------------------------------------------------------------------------*/
FoamFile
{
    version     2.0;
    format      ascii;
    class       dictionary;
    object      simulationConditions;
}
// * * * * * * * * * * * * * * * * * * * * * * * * * * * * * * * * * * * * * //
/*
P (bar)	rpm
2	4180
5	6609
10	9347
15	11447
20	13218
35	17486
30	16189
40	18693
50	20900
60	22895
*/
//
Ah          1e-11; //3.5 LMH/Bar
rRef        0.07;
Robs        1.0;

CA0         1.0; //10 mMol
Pref        6.1e5;
RPM         7300;


// ************************************************************************* //
